NiI_trbpyr_CC_856
 OpenBabel06122515263D
Created by GaussView 6.1.1
 30 32  0  0  0  0  0  0  0  0999 V2000
   -1.7656   -3.6908    0.6251 C   0  0  0  0  0  0  0  0  0  0  0  0
   -2.3615   -1.5218    0.6757 Ni  0  0  0  0  0  0  0  0  0  0  0  0
   -2.6613    0.1148    1.9745 N   0  0  0  0  0  0  0  0  0  0  0  0
   -3.2884    1.1869    1.4453 C   0  0  1  0  0  0  0  0  0  0  0  0
   -2.3572    0.1313    3.2749 C   0  0  0  0  0  0  0  0  0  0  0  0
   -3.6346    2.2889    2.2277 C   0  0  0  0  0  0  0  0  0  0  0  0
   -3.5299    1.1377   -0.0244 C   0  0  1  0  0  0  0  0  0  0  0  0
   -2.6659    1.2001    4.1163 C   0  0  0  0  0  0  0  0  0  0  0  0
   -1.8575   -0.7628    3.6540 H   0  0  0  0  0  0  0  0  0  0  0  0
   -3.3304    2.3163    3.5978 C   0  0  0  0  0  0  0  0  0  0  0  0
   -4.1296    3.1453    1.7690 H   0  0  0  0  0  0  0  0  0  0  0  0
   -4.2809    2.0977   -0.7030 C   0  0  0  0  0  0  0  0  0  0  0  0
   -2.9299    0.1200   -0.6771 N   0  0  0  0  0  0  0  0  0  0  0  0
   -2.3806    1.1375    5.1659 H   0  0  0  0  0  0  0  0  0  0  0  0
   -4.4088    2.0485   -2.1002 C   0  0  0  0  0  0  0  0  0  0  0  0
   -4.7782    2.8916   -0.1450 H   0  0  0  0  0  0  0  0  0  0  0  0
   -3.0187    0.0797   -2.0077 C   0  0  0  0  0  0  0  0  0  0  0  0
   -3.2997    3.3423    5.8442 C   0  0  0  0  0  0  0  0  0  0  0  0
   -3.7348    1.0136   -2.7570 C   0  0  0  0  0  0  0  0  0  0  0  0
   -2.4909   -0.7366   -2.5074 H   0  0  0  0  0  0  0  0  0  0  0  0
   -3.7829    2.4695    6.3106 H   0  0  0  0  0  0  0  0  0  0  0  0
   -2.2089    3.2303    5.9462 H   0  0  0  0  0  0  0  0  0  0  0  0
   -3.6015    4.2379    6.4088 H   0  0  0  0  0  0  0  0  0  0  0  0
   -3.7579    0.9088   -3.8410 H   0  0  0  0  0  0  0  0  0  0  0  0
   -4.6895    4.4268   -2.5075 C   0  0  0  0  0  0  0  0  0  0  0  0
   -5.2914    5.1871   -3.0304 H   0  0  0  0  0  0  0  0  0  0  0  0
   -4.7272    4.6497   -1.4300 H   0  0  0  0  0  0  0  0  0  0  0  0
   -3.6454    4.5216   -2.8454 H   0  0  0  0  0  0  0  0  0  0  0  0
   -3.7063    3.5009    4.4196 O   0  0  0  0  0  0  0  0  0  0  0  0
   -5.2287    3.0709   -2.8090 O   0  0  0  0  0  0  0  0  0  0  0  0
  1  2  9  0  0  0  0
  2 13  9  0  0  0  0
  2  3  9  0  0  0  0
  3  4  1  0  0  0  0
  3  5  1  0  0  0  0
  4  6  1  6  0  0  0
  4  7  1  0  0  0  0
  5  8  2  0  0  0  0
  5  9  1  0  0  0  0
  6 10  2  0  0  0  0
  6 11  1  0  0  0  0
  7 12  1  6  0  0  0
  7 13  1  0  0  0  0
  8 10  1  0  0  0  0
  8 14  1  0  0  0  0
 10 29  1  0  0  0  0
 12 15  2  0  0  0  0
 12 16  1  0  0  0  0
 13 17  1  0  0  0  0
 15 19  1  0  0  0  0
 15 30  1  0  0  0  0
 17 19  2  0  0  0  0
 17 20  1  0  0  0  0
 18 21  1  0  0  0  0
 18 22  1  0  0  0  0
 18 23  1  0  0  0  0
 18 29  1  0  0  0  0
 19 24  1  0  0  0  0
 25 26  1  0  0  0  0
 25 27  1  0  0  0  0
 25 28  1  0  0  0  0
 25 30  1  0  0  0  0
M  END
$$$$
