NiI_trbpyr_CC_856
 OpenBabel06122515273D
Created by GaussView 6.1.1
 46 48  0  0  0  0  0  0  0  0999 V2000
   -1.7865   -3.7272    0.6234 C   0  0  0  0  0  0  0  0  0  0  0  0
   -2.3886   -1.5593    0.6294 Ni  0  0  0  0  0  0  0  0  0  0  0  0
   -2.6884    0.0773    1.9282 N   0  0  0  0  0  0  0  0  0  0  0  0
   -3.3155    1.1494    1.3990 C   0  0  1  0  0  0  0  0  0  0  0  0
   -2.3843    0.0938    3.2286 C   0  0  0  0  0  0  0  0  0  0  0  0
   -3.6617    2.2514    2.1814 C   0  0  0  0  0  0  0  0  0  0  0  0
   -3.5570    1.1002   -0.0707 C   0  0  1  0  0  0  0  0  0  0  0  0
   -2.6930    1.1626    4.0700 C   0  0  0  0  0  0  0  0  0  0  0  0
   -1.8846   -0.8003    3.6077 H   0  0  0  0  0  0  0  0  0  0  0  0
   -3.3575    2.2788    3.5515 C   0  0  0  0  0  0  0  0  0  0  0  0
   -4.1567    3.1078    1.7227 H   0  0  0  0  0  0  0  0  0  0  0  0
   -4.3080    2.0602   -0.7493 C   0  0  0  0  0  0  0  0  0  0  0  0
   -2.9570    0.0825   -0.7234 N   0  0  0  0  0  0  0  0  0  0  0  0
   -2.4077    1.1000    5.1196 H   0  0  0  0  0  0  0  0  0  0  0  0
   -3.7428    3.4929    4.3937 C   0  0  0  0  0  0  0  0  0  0  0  0
   -4.4359    2.0110   -2.1465 C   0  0  0  0  0  0  0  0  0  0  0  0
   -4.8053    2.8541   -0.1913 H   0  0  0  0  0  0  0  0  0  0  0  0
   -3.0458    0.0422   -2.0540 C   0  0  0  0  0  0  0  0  0  0  0  0
   -3.0540    4.7397    3.8190 C   0  0  0  0  0  0  0  0  0  0  0  0
   -3.3256    3.3301    5.8554 C   0  0  0  0  0  0  0  0  0  0  0  0
   -5.2662    3.6786    4.3317 C   0  0  0  0  0  0  0  0  0  0  0  0
   -3.7619    0.9761   -2.8033 C   0  0  0  0  0  0  0  0  0  0  0  0
   -5.2762    3.0588   -2.8729 C   0  0  0  0  0  0  0  0  0  0  0  0
   -2.5180   -0.7741   -2.5537 H   0  0  0  0  0  0  0  0  0  0  0  0
   -3.3616    4.9321    2.7795 H   0  0  0  0  0  0  0  0  0  0  0  0
   -3.3260    5.6219    4.4206 H   0  0  0  0  0  0  0  0  0  0  0  0
   -1.9581    4.6316    3.8418 H   0  0  0  0  0  0  0  0  0  0  0  0
   -3.8088    2.4573    6.3218 H   0  0  0  0  0  0  0  0  0  0  0  0
   -2.2348    3.2181    5.9574 H   0  0  0  0  0  0  0  0  0  0  0  0
   -3.6274    4.2257    6.4200 H   0  0  0  0  0  0  0  0  0  0  0  0
   -5.6136    3.8467    3.3006 H   0  0  0  0  0  0  0  0  0  0  0  0
   -5.7883    2.7960    4.7337 H   0  0  0  0  0  0  0  0  0  0  0  0
   -5.5562    4.5549    4.9335 H   0  0  0  0  0  0  0  0  0  0  0  0
   -3.7850    0.8713   -3.8873 H   0  0  0  0  0  0  0  0  0  0  0  0
   -5.2648    2.8499   -4.3873 C   0  0  0  0  0  0  0  0  0  0  0  0
   -4.7204    4.4563   -2.5622 C   0  0  0  0  0  0  0  0  0  0  0  0
   -6.7248    2.9651   -2.3706 C   0  0  0  0  0  0  0  0  0  0  0  0
   -5.8824    3.6264   -4.8644 H   0  0  0  0  0  0  0  0  0  0  0  0
   -4.2470    2.9260   -4.8010 H   0  0  0  0  0  0  0  0  0  0  0  0
   -5.6806    1.8691   -4.6663 H   0  0  0  0  0  0  0  0  0  0  0  0
   -5.3223    5.2166   -3.0851 H   0  0  0  0  0  0  0  0  0  0  0  0
   -4.7581    4.6792   -1.4847 H   0  0  0  0  0  0  0  0  0  0  0  0
   -3.6763    4.5511   -2.9001 H   0  0  0  0  0  0  0  0  0  0  0  0
   -7.1507    1.9701   -2.5756 H   0  0  0  0  0  0  0  0  0  0  0  0
   -6.7919    3.1542   -1.2879 H   0  0  0  0  0  0  0  0  0  0  0  0
   -7.3434    3.7179   -2.8849 H   0  0  0  0  0  0  0  0  0  0  0  0
  1  2  9  0  0  0  0
  2 13  9  0  0  0  0
  2  3  9  0  0  0  0
  3  4  1  0  0  0  0
  3  5  1  0  0  0  0
  4  6  1  6  0  0  0
  4  7  1  0  0  0  0
  5  8  2  0  0  0  0
  5  9  1  0  0  0  0
  6 10  2  0  0  0  0
  6 11  1  0  0  0  0
  7 12  1  6  0  0  0
  7 13  1  0  0  0  0
  8 10  1  0  0  0  0
  8 14  1  0  0  0  0
 10 15  1  0  0  0  0
 12 16  2  0  0  0  0
 12 17  1  0  0  0  0
 13 18  1  0  0  0  0
 15 19  1  0  0  0  0
 15 20  1  0  0  0  0
 15 21  1  0  0  0  0
 16 22  1  0  0  0  0
 16 23  1  0  0  0  0
 18 22  2  0  0  0  0
 18 24  1  0  0  0  0
 19 25  1  0  0  0  0
 19 26  1  0  0  0  0
 19 27  1  0  0  0  0
 20 28  1  0  0  0  0
 20 29  1  0  0  0  0
 20 30  1  0  0  0  0
 21 31  1  0  0  0  0
 21 32  1  0  0  0  0
 21 33  1  0  0  0  0
 22 34  1  0  0  0  0
 23 35  1  0  0  0  0
 23 36  1  0  0  0  0
 23 37  1  0  0  0  0
 35 38  1  0  0  0  0
 35 39  1  0  0  0  0
 35 40  1  0  0  0  0
 36 41  1  0  0  0  0
 36 42  1  0  0  0  0
 36 43  1  0  0  0  0
 37 44  1  0  0  0  0
 37 45  1  0  0  0  0
 37 46  1  0  0  0  0
M  END
$$$$
